deprecated/industrial_network_medium_hhc.m
% Loop Flow Problem

function mpc = industrial_network_medium
mpc.version = '2';
mpc.baseMVA =  100.00;
mpc.principle = 'absolute equality'

%% bus data
%	bus_i	type	Pd	    Qd	    Gs	    Bs	    area	Vm	    Va	    baseKV	zone	Vmax    Vmin
mpc.bus = [
% 400kV %%%%%%%%%%%%%%%%%%%%%%%%%%%%%%%%%%%%%%%%%%%%%%%%%%%%%%%%%%%%%%%%%%%%%%%%		
	991	    3	    0.0	    0.0	    0.0	    0.0	    1	    1.0	    0.0	    400.0	1	    1.10000	0.90000; % 380kV-Left-Inf
	992	    3	    0.0	    0.0	    0.0	    0.0	    1	    1.0	    10.0	400.0	1	    1.10000	0.90000; % 380kV-Right-Inf
	1	    1	    0.0	    0.0	    0.0	    0.0	    1	    1.0	    0.0	    400.0	1	    1.10000	0.90000; % 380kV-Left
	2	    1	    0.0	    0.0	    0.0	    0.0	    1	    1.0	    0.0		400.0	1	    1.10000	0.90000; % 380kV-Right
% 150kV %%%%%%%%%%%%%%%%%%%%%%%%%%%%%%%%%%%%%%%%%%%%%%%%%%%%%%%%%%%%%%%%%%%%%%%%
	10		1 		0.0		0.0		0.0		0.0		1		1.0		0.0		155.0	1		1.10000 0.90000; % 150kV-Zandvliet/Noordland-Section ZANDV
	20		1 		0.0		0.0		0.0		0.0		1		1.0		0.0		155.0	1		1.10000	0.90000; % 150kV-Lillo
	30		1		0.0		0.0		0.0		0.0		1		1.0		0.0		155.0	1		1.10000	0.90000; % 150kV-Zandvliet/Noordland-Section NORDL
	40		1		0.0		0.0		0.0		0.0		1		1.0		0.0		155.0	1		1.10000	0.90000; % 150kV-BASF
% 35kV %%%%%%%%%%%%%%%%%%%%%%%%%%%%%%%%%%%%%%%%%%%%%%%%%%%%%%%%%%%%%%%%%%%%%%%%%
	100	    1	    96.3	23.363	0.0	    1.0	    1	    1.0	    0.0	    35.4	1	    1.10000	0.90000; % 35kV-BASF-R100 - voltage is set to 1.0 pu using oltc
	200	    1	    75.8	12.437	0.0	    1.0	    1	    1.0	    0.0	    35.4	1	    1.10000	0.90000; % 35kV-BASF-R200 - voltage is set to 1.0 pu using oltc
	300		1	    0.0	    0.0	    0.0	    0.0	    1	    1.0	    0.0	    35.4	1	    1.10000	0.90000; % 35kV-BASF-SB
	500	    1	    92.0	10.120	0.0	    1.0	    1	    1.0	    0.0	    35.4	1	    1.10000	0.90000; % 35kV-BASF-R500 - voltage is set to 1.0 pu using oltc
	700		1	    99.7	20.449  0.0	    1.0	    1	    1.0	    0.0	    35.4	1	    1.10000	0.90000; % 35kV-BASF-R700 - voltage is set to 1.0 pu using oltc
	800		1	    81.0	22.047	0.0	    1.0	    1	    1.0	    0.0	    35.4	1	    1.10000	0.90000; % 35kV-BASF-R800 - voltage is set to 1.0 pu using oltc
	1000	1	    0.0		0.0		0.0	    1.0	    1	    1.0	    0.0	    35.4	1	    1.10000	0.90000; % 35kV-BASF-R1000 - voltage is set to 1.0 pu using oltc
% 21kV %%%%%%%%%%%%%%%%%%%%%%%%%%%%%%%%%%%%%%%%%%%%%%%%%%%%%%%%%%%%%%%%%%%%%%%%%
	99 		1 		0.0		0.0		0.0		0.0		1		1.0		0.0		21.3	1		1.10000	0.90000; % 21kV-BASF-ZVP - voltage is set to 1.0 pu using generator
%%%%%%%%%%%%%%%%%%%%%%%%%%%%%%%%%%%%%%%%%%%%%%%%%%%%%%%%%%%%%%%%%%%%%%%%%%%%%%%%
];

%% bus harmonic data 
%column_names%  ref_angle   standard 
mpc.bus_harmonics = [
% 400kV %%%%%%%%%%%%%%%%%%%%%%%%%%%%%%%%%%%%%%%%%%%%%%%%%%%%%%%%%%%%%%%%%%%%%%%%	
                0.0         'Clean Bus';                % 991
                0.0         'Clean Bus';        		% 992
				0.0 		'IEC61000-3-6:2008';		% 1
				0.0 		'IEC61000-3-6:2008';		% 2
% 150kV %%%%%%%%%%%%%%%%%%%%%%%%%%%%%%%%%%%%%%%%%%%%%%%%%%%%%%%%%%%%%%%%%%%%%%%%
                0.0       	'IEC61000-3-6:2008'; 		% 10
                0.0       	'IEC61000-3-6:2008'; 		% 20
                0.0       	'IEC61000-3-6:2008'; 		% 30
                0.0       	'IEC61000-3-6:2008'; 		% 40
% 35kV %%%%%%%%%%%%%%%%%%%%%%%%%%%%%%%%%%%%%%%%%%%%%%%%%%%%%%%%%%%%%%%%%%%%%%%%%
                -30.0       'IEC61000-2-4:2002, Cl. 2'; % 100
                -30.0       'IEC61000-2-4:2002, Cl. 2'; % 200
                -30.0       'IEC61000-2-4:2002, Cl. 2';	% 300
                -30.0       'IEC61000-2-4:2002, Cl. 2'; % 500
                -30.0       'IEC61000-2-4:2002, Cl. 2'; % 700
                -30.0       'IEC61000-2-4:2002, Cl. 2'; % 800
                -30.0       'IEC61000-2-4:2002, Cl. 2'; % 1000
% 21kV %%%%%%%%%%%%%%%%%%%%%%%%%%%%%%%%%%%%%%%%%%%%%%%%%%%%%%%%%%%%%%%%%%%%%%%%%
				0.0			'IEC61000-2-4:2002, Cl. 2'; % 99
%%%%%%%%%%%%%%%%%%%%%%%%%%%%%%%%%%%%%%%%%%%%%%%%%%%%%%%%%%%%%%%%%%%%%%%%%%%%%%%%				
];

%% generator data
%	bus	    Pg	    Qg	    Qmax    Qmin    Vg	    mBase	status  Pmax    Pmin
mpc.gen = [
	991	    0.0		0.0	    9999.0	-9999.0	1.00000	100.0	1	    9999.0	0.0; % 380kV-Left-Inf
    992	    0.0		0.0	    9999.0	-9999.0	1.00000	100.0	1	    9999.0	0.0; % 380kV-Right-Inf
	99 		0.0		0.0		200.0	-200.0	1.00000	100.0	1		467.0	0.0; % ZVP
];

%% branch data
%	fbus	tbus	r	    x	    b	    rateA	rateB	rateC	ratio	angle	status	angmin	angmax
mpc.branch = [
% 400kV - 400kV %%%%%%%%%%%%%%%%%%%%%%%%%%%%%%%%%%%%%%%%%%%%%%%%%%%%%%%%%%%%%%%%
	991	    1	    0.00030 0.00578	0.0	    9999	9999	9999	0.0	    0.0	    1	    -30.0	30.0; % 1 - 380kV-Zandvliet - infinite grid (Ssc = 17.3e9 VA, XRr = 20)
	992	    2	    0.00030 0.00578	0.0	    9999	9999	9999	0.0	    0.0	    1	    -30.0	30.0; % 2 - 380kV-Zandvliet - infinite grid (Ssc = 17.3e9 VA, XRr = 20)
% 150kV %%%%%%%%%%%%%%%%%%%%%%%%%%%%%%%%%%%%%%%%%%%%%%%%%%%%%%%%%%%%%%%%%%%%%%%%
	20		30		0.00088	0.00556 0.24962	300		300		300		0.0		0.0		1		-30.0	30.0; % 7  - F150.431 (L = 10.6 km, R = 0.02 Ohm/km, L = 0.40107e-3 H/km, C = 0.312e-6 F/km)
	20		30		0.00088	0.00556 0.24962	300		300		300		0.0		0.0		1		-30.0	30.0; % 8  - F150.433 (L = 10.6 km, R = 0.02 Ohm/km, L = 0.40107e-3 H/km, C = 0.312e-6 F/km)
	10		40		0.00017	0.00097 0.04630	300		300		300		0.0		0.0		1		-30.0	30.0; % 9  - F150.104N (L = 1.917 km, R = 0.021 Ohm/km, L = 0.38515e-3 H/km, C = 0.32e-6 F/km)	
	10		40		0.00019	0.00090 0.04508	300		300		300		0.0		0.0		1		-30.0	30.0; % 10 - F150.196 (L = 1.81 km, R = 0.025 Ohm/km, L = 0.37879e-3 H/km, C = 0.33e-6 F/km)	
	10		40		0.00019	0.00092 0.04608	300		300		300		0.0		0.0		1		-30.0	30.0; % 11 - F150.197 (L = 1.85 km, R = 0.025 Ohm/km, L = 0.37879e-3 H/km, C = 0.33e-6 F/km)	
	30		40		0.00018	0.00103 0.04925	300		300		300		0.0		0.0		1		-30.0	30.0; % 12 - F150.382-1 (L = 2.039 km, R = 0.021 Ohm/km, L = 0.38515e-3 H/km, C = 0.32e-6 F/km)	
	30		40		0.00018	0.00103 0.04925	300		300		300		0.0		0.0		1		-30.0	30.0; % 13 - F150.382-2 (L = 2.039 km, R = 0.021 Ohm/km, L = 0.38515e-3 H/km, C = 0.32e-6 F/km)
% 35.4kV %%%%%%%%%%%%%%%%%%%%%%%%%%%%%%%%%%%%%%%%%%%%%%%%%%%%%%%%%%%%%%%%%%%%%%%
	100		300		0.0	    0.1708	0.0	    70	    70	    70	    0.0	    0.0	    1	    -30.0	30.0; % 27 - 35kV-BASF-R100 SB - single coil = 0.1708, double coil = 0.0559
	200		300		0.0	    0.1708	0.0	    70	    70	    70	    0.0	    0.0	    1	    -30.0	30.0; % 28 - 35kV-BASF-R200-1 SB
	500		300	    0.0	    0.1708	0.0	    70	    70	    70	    0.0	    0.0	    1	    -30.0	30.0; % 32 - 35kV-BASF-R500 SB
	700		300	    0.0	    0.1708	0.0	    70	    70	    70	    0.0	    0.0	    1	    -30.0	30.0; % 34 - 35kV-BASF-R700 SB
	800		300	    0.0	    0.1708	0.0	    70	    70	    70	    0.0	    0.0	    1	    -30.0	30.0; % 35 - 35kV-BASF-R800 SB
%%%%%%%%%%%%%%%%%%%%%%%%%%%%%%%%%%%%%%%%%%%%%%%%%%%%%%%%%%%%%%%%%%%%%%%%%%%%%%%%
];

%% xfmr data
%column_names%  f_bus   t_bus   xsc         gsh         r1          r2          vg      gnd1    gnd2    re1     xe1     re2         xe2         rateA
mpc.xfmr = [
% 400kV - 150kV %%%%%%%%%%%%%%%%%%%%%%%%%%%%%%%%%%%%%%%%%%%%%%%%%%%%%%%%%%%%%%%%
				2	    10	    0.03971		0.0	    	0.0			0.0			'Yy0' 	0		0		0.0		0.0		0.0			0.0			555.0; % 3  - ZANDV T1 (Snom = 555e6 VA, usc = 0.2204)
				2		10		0.04018		0.0	    	0.0			0.0			'Yy0' 	0		0		0.0		0.0		0.0			0.0			555.0; % 4  - ZANDV T2 (Snom = 555e6 VA, usc = 0.223)
				1		30		0.04018		0.0	    	0.0			0.0			'Yy0' 	0		0		0.0		0.0		0.0			0.0			555.0; % 5  - NORDL T1 (Snom = 555e6 VA, usc = 0.223)
 				1		20		0.04018		0.0	    	0.0			0.0			'Yy0' 	0		0		0.0		0.0		0.0			0.0			555.0; % 6  - LILLO T5 (Snom = 555e6 VA, usc = 0.223)
% 150kV - 35.4kV %%%%%%%%%%%%%%%%%%%%%%%%%%%%%%%%%%%%%%%%%%%%%%%%%%%%%%%%%%%%%%%
				40	    100	    0.1536		0.0	    	0.0			0.0			'Yd11' 	0		0		0.0		0.0		0.0			0.0			125.0; % 17 - VT3 (Snom = 125e6 VA, usc = 0.192)
				40	    200	    0.1608		0.0	    	0.0			0.0			'Yd11' 	0		0		0.0		0.0		0.0			0.0			125.0; % 18 - VT4 (Snom = 125e6 VA, usc = 0.201)
				40	    500	    0.1379		0.0	    	0.0			0.0			'Yd11' 	0		0		0.0		0.0		0.0			0.0			145.0; % 19 - VT5 (Snom = 145e6 VA, usc = 0.203)
				40	    700    	0.1379		0.0	    	0.0			0.0			'Yd11' 	0		0		0.0		0.0		0.0			0.0			145.0; % 21 - VT7 (Snom = 145e6 VA, usc = 0.202)
				10	    800    	0.1379		0.0	    	0.0			0.0			'Yd11' 	0		0		0.0		0.0		0.0			0.0			145.0; % 22 - VT8 (Snom = 145e6 VA, usc = 0.202)
				10	    1000    0.1360		0.0	    	0.0			0.0			'Yd11' 	0		0		0.0		0.0		0.0			0.0			145.0; % 23 - VT1 (Snom = 125e6 VA, usc = 0.170)
% 150kV - 21kV %%%%%%%%%%%%%%%%%%%%%%%%%%%%%%%%%%%%%%%%%%%%%%%%%%%%%%%%%%%%%%%%%
				40	    99	    0.0321		0.0	    	0.0			0.0			'Yd11' 	0		0		0.0		0.0		0.0			0.0			467.0; % 26 - GT1 (Snom = 467e6 VA, usc = 0.149984)
%%%%%%%%%%%%%%%%%%%%%%%%%%%%%%%%%%%%%%%%%%%%%%%%%%%%%%%%%%%%%%%%%%%%%%%%%%%%%%%%
];